16

 C         -1.8003321741       -0.7053325867       -0.2768938608
 H         -1.4428045308       -1.7527018337       -0.2560922652
 H         -2.9070070383       -0.7148079985       -0.2564704010
 C         -1.2658099179        0.0490839336        0.9286515403
 H         -1.6226853406        1.0966681235        0.9074732413
 H         -0.1591223439        0.0578729715        0.9086041534
 O         -1.3244780949       -0.0344307667       -1.4412349449
 O         -1.7424682334       -0.6212466081        2.0929922308
 C         -1.7807625893       -0.6852655120       -2.6245355205
 H         -2.8855180298       -0.6928183350       -2.6714976446
 H         -1.3824125543       -0.1203954645       -3.4772658337
 H         -1.4142300395       -1.7275540386       -2.6695750537
 C         -1.2830363746        0.0273633761        3.2762963292
 H         -1.6451297686        1.0711849671        3.3217676158
 H         -1.6834654777       -0.5360387121        4.1290240143
 H         -0.1782419906        0.0302194355        3.3228321969
